14

C      2.714459   -0.241317    0.697450
C      1.392571   -0.312794    0.481094
C      0.737457    0.653063   -0.362812
C     -0.563302    0.630699   -0.611006
C     -1.469931   -0.366850   -0.061529
C     -2.778381   -0.374819   -0.321890
H      3.324930    0.537839    0.248404
H      3.238282   -0.948875    1.324589
H      0.875030   -1.123638    0.972361
H      1.328358    1.437420   -0.819672
H     -1.014840    1.382653   -1.256110
H     -1.119970   -1.168266    0.599323
H     -3.457550   -1.112525    0.082694
H     -3.207113    0.391447   -0.972894
